@<TRIPOS>MOLECULE
MOL
   62    66     1     0     0
SMALL
rc


@<TRIPOS>ATOM
      1 H1           3.5580    -0.8160     3.0800 HO         0 MOL       0.442200
      2 O2           3.4270    -0.4700     2.2080 OH         0 MOL      -0.631800
      3 C3           4.5030    -0.8490     1.3850 CT         0 MOL      -0.006900
      4 H4           4.5610    -1.9310     1.3020 H1         0 MOL       0.075400
      5 H5           5.4430    -0.4860     1.7940 H1         0 MOL       0.075400
      6 C6           4.3150    -0.2610     0.0020 CT         0 MOL       0.162900
      7 H7           5.2130    -0.4700    -0.5710 H1         0 MOL       0.117600
      8 O8           3.2130    -0.8750    -0.6300 OS         0 MOL      -0.369100
      9 C9           2.2910     0.0780    -1.1190 CT         0 MOL       0.068000
     10 H10          2.4920     0.2740    -2.1590 H2         0 MOL       0.180400
     11 N11          0.9710    -0.5020    -1.0740 N          0 MOL      -0.364573
     12 C12          0.4340    -0.9290     0.1940 CT         0 MOL       0.016117
     13 H13          1.2090    -0.8080     0.9310 H1         0 MOL       0.210939
     14 C14         -0.1320    -2.3570     0.2860 CT         0 MOL      -0.099993
     15 C15          0.7930    -3.4590     0.8000 CT         0 MOL      -0.448439
     16 H16          1.2640    -3.1680     1.7300 HC         0 MOL       0.138092
     17 H17          0.2420    -4.3780     0.9510 HC         0 MOL       0.138092
     18 H18          1.5820    -3.6450     0.0790 HC         0 MOL       0.138092
     19 C19         -0.7030    -2.8250    -1.0430 C          0 MOL       0.936590
     20 O20         -1.3180    -3.8380    -1.1630 O          0 MOL      -0.624186
     21 N21         -0.4630    -2.0120    -2.1240 N          0 MOL      -0.784793
     22 H22         -0.8100    -2.3460    -2.9990 H          0 MOL       0.393736
     23 C23          0.4750    -0.9990    -2.2450 C          0 MOL       0.856056
     24 O24          0.8010    -0.6220    -3.3330 O          0 MOL      -0.632531
     25 C25          4.0420     1.2560    -0.0220 CT         0 MOL       0.071300
     26 H26          4.3200     1.7250     0.9090 H1         0 MOL       0.098500
     27 C27          2.5380     1.3220    -0.2720 CT         0 MOL      -0.085400
     28 H28          2.0070     1.2560     0.6650 HC         0 MOL       0.071800
     29 H29          2.2420     2.2310    -0.7760 HC         0 MOL       0.071800
     30 O30          4.7990     1.9150    -1.0050 OH         0 MOL      -0.654900
     31 H31          4.5800     1.5930    -1.8690 HO         0 MOL       0.439600
     32 H32         -1.1660     2.9040     3.4780 HO         0 MOL       0.442200
     33 O33         -1.3100     2.8060     2.5470 OH         0 MOL      -0.631800
     34 C34         -0.3380     3.5230     1.8330 CT         0 MOL      -0.006900
     35 H35          0.6530     3.1170     2.0170 H1         0 MOL       0.075400
     36 H36         -0.3330     4.5700     2.1300 H1         0 MOL       0.075400
     37 C37         -0.6400     3.4480     0.3500 CT         0 MOL       0.162900
     38 H38          0.0840     4.0660    -0.1690 H1         0 MOL       0.117600
     39 O39         -0.4980     2.1160    -0.1140 OS         0 MOL      -0.369100
     40 C40         -1.6800     1.6020    -0.6510 CT         0 MOL       0.068000
     41 H41         -1.6040     1.5770    -1.7300 H2         0 MOL       0.180400
     42 N42         -1.8390     0.2160    -0.1870 N          0 MOL      -0.364573
     43 C43         -0.8970    -0.3470     0.7640 CT         0 MOL       0.016117
     44 H44         -0.7550     0.3590     1.5650 H1         0 MOL       0.210939
     45 C45         -1.2460    -1.7820     1.2530 CT         0 MOL      -0.099993
     46 C46         -0.9360    -1.9630     2.7390 CT         0 MOL      -0.448439
     47 H47         -1.6520    -1.4030     3.3300 HC         0 MOL       0.138092
     48 H48         -1.0080    -3.0030     3.0220 HC         0 MOL       0.138092
     49 H49          0.0550    -1.5970     2.9820 HC         0 MOL       0.138092
     50 C50         -2.6490    -2.2730     0.9780 C          0 MOL       0.936590
     51 O51         -3.1570    -3.1790     1.5600 O          0 MOL      -0.624186
     52 N52         -3.3020    -1.6030    -0.0230 N          0 MOL      -0.784793
     53 H53         -4.1820    -1.9740    -0.3130 H          0 MOL       0.393736
     54 C54         -2.9750    -0.3930    -0.6040 C          0 MOL       0.856056
     55 O55         -3.7090     0.0860    -1.4260 O          0 MOL      -0.632531
     56 C56         -2.0590     3.8850    -0.0410 CT         0 MOL       0.071300
     57 H57         -2.5040     4.5120     0.7170 H1         0 MOL       0.098500
     58 C58         -2.7880     2.5560    -0.1890 CT         0 MOL      -0.085400
     59 H59         -3.1580     2.2320     0.7740 HC         0 MOL       0.071800
     60 H60         -3.6120     2.6100    -0.8840 HC         0 MOL       0.071800
     61 O61         -2.0620     4.6600    -1.2130 OH         0 MOL      -0.654900
     62 H62         -1.8730     4.1220    -1.9710 HO         0 MOL       0.439600
@<TRIPOS>BOND
     1     1     2 1   
     2     2     3 1   
     3     3     4 1   
     4     3     5 1   
     5     3     6 1   
     6     6     7 1   
     7     6     8 1   
     8     6    25 1   
     9     8     9 1   
    10     9    10 1   
    11     9    11 1   
    12     9    27 1   
    13    11    12 1   
    14    11    23 1   
    15    12    13 1   
    16    12    14 1   
    17    12    43 1   
    18    14    15 1   
    19    14    19 1   
    20    14    45 1   
    21    15    16 1   
    22    15    17 1   
    23    15    18 1   
    24    19    20 2   
    25    19    21 1   
    26    21    22 1   
    27    21    23 1   
    28    23    24 2   
    29    25    26 1   
    30    25    27 1   
    31    25    30 1   
    32    27    28 1   
    33    27    29 1   
    34    30    31 1   
    35    32    33 1   
    36    33    34 1   
    37    34    35 1   
    38    34    36 1   
    39    34    37 1   
    40    37    38 1   
    41    37    39 1   
    42    37    56 1   
    43    39    40 1   
    44    40    41 1   
    45    40    42 1   
    46    40    58 1   
    47    42    43 1   
    48    42    54 1   
    49    43    44 1   
    50    43    45 1   
    51    45    46 1   
    52    45    50 1   
    53    46    47 1   
    54    46    48 1   
    55    46    49 1   
    56    50    51 2   
    57    50    52 1   
    58    52    53 1   
    59    52    54 1   
    60    54    55 2   
    61    56    57 1   
    62    56    58 1   
    63    56    61 1   
    64    58    59 1   
    65    58    60 1   
    66    61    62 1   
@<TRIPOS>SUBSTRUCTURE
     1 MOL         1 TEMP              0 ****  ****    0 ROOT
