# T-T dimer ESP calculation
# Created by GaussView 6.0.16
#

#
#

@<TRIPOS>MOLECULE
Molecule Name
62 66
SMALL
NO_CHARGES


@<TRIPOS>ATOM
1 H1     3.5580    -0.8155     3.0801 H
2 O2     3.4268    -0.4703     2.2081 O
3 C3     4.5033    -0.8494     1.3853 C
4 H4     4.5613    -1.9305     1.3024 H
5 H5     5.4432    -0.4856     1.7942 H
6 C6     4.3154    -0.2613     0.0016 C
7 H7     5.2134    -0.4703    -0.5709 H
8 O8     3.2127    -0.8747    -0.6297 O
9 C9     2.2910     0.0776    -1.1185 C
10 H10     2.4917     0.2735    -2.1592 H
11 N11     0.9708    -0.5021    -1.0738 N
12 C12     0.4339    -0.9289     0.1936 C
13 H13     1.2086    -0.8082     0.9314 H
14 C14    -0.1315    -2.3570     0.2860 C
15 C15     0.7933    -3.4587     0.8004 C
16 H16     1.2641    -3.1684     1.7303 H
17 H17     0.2417    -4.3776     0.9510 H
18 H18     1.5822    -3.6449     0.0787 H
19 C19    -0.7033    -2.8246    -1.0427 C
20 O20    -1.3179    -3.8384    -1.1630 O
21 N21    -0.4631    -2.0124    -2.1239 N
22 H22    -0.8102    -2.3465    -2.9993 H
23 C23     0.4754    -0.9987    -2.2453 C
24 O24     0.8008    -0.6222    -3.3332 O
25 C25     4.0418     1.2564    -0.0223 C
26 H26     4.3203     1.7254     0.9087 H
27 C27     2.5384     1.3218    -0.2723 C
28 H28     2.0073     1.2559     0.6650 H
29 H29     2.2424     2.2305    -0.7764 H
30 O30     4.7991     1.9152    -1.0049 O
31 H31     4.5805     1.5925    -1.8693 H
32 H32    -1.1658     2.9044     3.4776 H
33 O33    -1.3105     2.8059     2.5471 O
34 C34    -0.3377     3.5235     1.8335 C
35 H35     0.6527     3.1167     2.0169 H
36 H36    -0.3331     4.5702     2.1295 H
37 C37    -0.6401     3.4483     0.3501 C
38 H38     0.0837     4.0658    -0.1685 H
39 O39    -0.4978     2.1160    -0.1138 O
40 C40    -1.6804     1.6022    -0.6506 C
41 H41    -1.6038     1.5773    -1.7300 H
42 N42    -1.8387     0.2157    -0.1866 N
43 C43    -0.8971    -0.3475     0.7640 C
44 H44    -0.7554     0.3590     1.5645 H
45 C45    -1.2455    -1.7819     1.2527 C
46 C46    -0.9356    -1.9629     2.7385 C
47 H47    -1.6523    -1.4034     3.3297 H
48 H48    -1.0078    -3.0031     3.0223 H
49 H49     0.0549    -1.5967     2.9824 H
50 C50    -2.6487    -2.2729     0.9781 C
51 O51    -3.1567    -3.1787     1.5598 O
52 N52    -3.3021    -1.6033    -0.0230 N
53 H53    -4.1824    -1.9744    -0.3130 H
54 C54    -2.9753    -0.3929    -0.6042 C
55 O55    -3.7087     0.0861    -1.4256 O
56 C56    -2.0594     3.8855    -0.0412 C
57 H57    -2.5044     4.5119     0.7169 H
58 C58    -2.7883     2.5559    -0.1894 C
59 H59    -3.1581     2.2325     0.7744 H
60 H60    -3.6117     2.6099    -0.8842 H
61 O61    -2.0622     4.6596    -1.2133 O
62 H62    -1.8730     4.1215    -1.9706 H
@<TRIPOS>BOND
1 1 2 1
2 2 3 1
3 3 4 1
4 3 5 1
5 3 6 1
6 6 7 1
7 6 8 1
8 6 25 1
9 8 9 1
10 9 10 1
11 9 11 1
12 9 27 1
13 11 12 1
14 11 23 Ar
15 12 13 1
16 12 14 1
17 12 43 1
18 14 15 1
19 14 19 1
20 14 45 1
21 15 16 1
22 15 17 1
23 15 18 1
24 19 20 2
25 19 21 Ar
26 21 22 1
27 21 23 1
28 23 24 2
29 25 26 1
30 25 27 1
31 25 30 1
32 27 28 1
33 27 29 1
34 30 31 1
35 32 33 1
36 33 34 1
37 34 35 1
38 34 36 1
39 34 37 1
40 37 38 1
41 37 39 1
42 37 56 1
43 39 40 1
44 40 41 1
45 40 42 1
46 40 58 1
47 42 43 1
48 42 54 Ar
49 43 44 1
50 43 45 1
51 45 46 1
52 45 50 1
53 46 47 1
54 46 48 1
55 46 49 1
56 50 51 2
57 50 52 Ar
58 52 53 1
59 52 54 1
60 54 55 2
61 56 57 1
62 56 58 1
63 56 61 1
64 58 59 1
65 58 60 1
66 61 62 1

